MODEL 1
REMARK VINA RESULT:    -7.564      0.000      0.000
REMARK INTER + INTRA:         -17.982
REMARK INTER:                 -14.861
REMARK INTRA:                  -3.121
REMARK UNBOUND:                -3.121
REMARK  Name = IG3_ligand.pdb
REMARK  22 active torsions:
REMARK  status: ('A' for Active; 'I' for Inactive)
REMARK    1  A    between atoms: O_2  and  C_23
REMARK    2  A    between atoms: O_2  and  C_26
REMARK    3  A    between atoms: O_4  and  C_21
REMARK    4  A    between atoms: O_4  and  C_29
REMARK    5  A    between atoms: O_5  and  C_18
REMARK    6  A    between atoms: O_6  and  C_19
REMARK    7  A    between atoms: O_7  and  C_20
REMARK    8  A    between atoms: O_8  and  C_22
REMARK    9  A    between atoms: O_9  and  C_24
REMARK   10  A    between atoms: O_10  and  C_25
REMARK   11  A    between atoms: O_11  and  C_28
REMARK   12  A    between atoms: O_12  and  C_30
REMARK   13  A    between atoms: O_13  and  C_31
REMARK   14  A    between atoms: O_14  and  C_32
REMARK   15  A    between atoms: O_15  and  C_33
REMARK   16  A    between atoms: C_17  and  C_26
REMARK   17  A    between atoms: C_27  and  C_28
REMARK   18  A    between atoms: C_29  and  C_30
REMARK   19  A    between atoms: C_30  and  C_31
REMARK   20  A    between atoms: C_31  and  C_32
REMARK   21  A    between atoms: C_32  and  C_33
REMARK   22  A    between atoms: C_33  and  C_34
REMARK                            x       y       z     vdW  Elec       q    Type
REMARK                         _______ _______ _______ _____ _____    ______ ____
ROOT
ATOM      1  O   UNL     1       0.121  11.747 -10.601  0.00  0.00    -0.341 OA
ATOM      2  C   UNL     1       0.060  12.033 -12.015  0.00  0.00    +0.178 C 
ATOM      3  C   UNL     1       1.273  12.781 -12.588  0.00  0.00    +0.177 C 
ATOM      4  C   UNL     1       1.835  13.840 -11.638  0.00  0.00    +0.179 C 
ATOM      5  C   UNL     1       1.995  13.266 -10.231  0.00  0.00    +0.201 C 
ATOM      6  C   UNL     1       0.601  12.813  -9.746  0.00  0.00    +0.282 C 
ENDROOT
BRANCH   3   7
ATOM      7  O   UNL     1       0.870  13.432 -13.806  0.00  0.00    -0.386 OA
ATOM      8  H   UNL     1       1.400  13.023 -14.520  0.00  0.00    +0.210 HD
ENDBRANCH   3   7
BRANCH   4   9
ATOM      9  O   UNL     1       3.080  14.301 -12.198  0.00  0.00    -0.386 OA
ATOM     10  H   UNL     1       3.400  15.037 -11.645  0.00  0.00    +0.210 HD
ENDBRANCH   4   9
BRANCH   5  11
ATOM     11  O   UNL     1       2.583  14.242  -9.358  0.00  0.00    -0.384 OA
ATOM     12  H   UNL     1       3.517  14.342  -9.621  0.00  0.00    +0.210 HD
ENDBRANCH   5  11
BRANCH   6  13
ATOM     13  O   UNL     1      -0.236  14.013  -9.635  0.00  0.00    -0.346 OA
BRANCH  13  14
ATOM     14  C   UNL     1      -0.894  14.165  -8.357  0.00  0.00    +0.197 C 
BRANCH  14  15
ATOM     15  C   UNL     1      -1.093  15.627  -7.823  0.00  0.00    +0.171 C 
BRANCH  15  16
ATOM     16  O   UNL     1      -1.982  15.614  -6.713  0.00  0.00    -0.387 OA
ATOM     17  H   UNL     1      -2.835  15.979  -6.979  0.00  0.00    +0.210 HD
ENDBRANCH  15  16
BRANCH  15  18
ATOM     18  C   UNL     1       0.176  16.453  -7.507  0.00  0.00    +0.176 C 
BRANCH  18  19
ATOM     19  O   UNL     1       1.241  15.494  -7.378  0.00  0.00    -0.386 OA
ATOM     20  H   UNL     1       0.863  14.621  -7.579  0.00  0.00    +0.210 HD
ENDBRANCH  18  19
BRANCH  18  21
ATOM     21  C   UNL     1       0.639  17.485  -8.593  0.00  0.00    +0.181 C 
BRANCH  21  22
ATOM     22  O   UNL     1       0.959  16.706  -9.789  0.00  0.00    -0.386 OA
ATOM     23  H   UNL     1       0.625  15.806  -9.612  0.00  0.00    +0.210 HD
ENDBRANCH  21  22
BRANCH  21  24
ATOM     24  C   UNL     1       1.884  18.359  -8.382  0.00  0.00    +0.208 C 
BRANCH  24  26
ATOM     25  O   UNL     1       3.715  16.806  -8.580  0.00  0.00    -0.298 OA
ATOM     26  C   UNL     1       3.190  17.855  -8.949  0.00  0.00    +0.257 C 
ENDBRANCH  24  26
BRANCH  24  27
ATOM     27  O   UNL     1       2.116  18.404  -6.947  0.00  0.00    -0.382 OA
ATOM     28  H   UNL     1       2.787  17.724  -6.748  0.00  0.00    +0.210 HD
ENDBRANCH  24  27
ENDBRANCH  21  24
ENDBRANCH  18  21
ENDBRANCH  15  18
ENDBRANCH  14  15
ENDBRANCH  13  14
ENDBRANCH   6  13
BRANCH   2  29
ATOM     29  C   UNL     1      -0.311  10.777 -12.916  0.00  0.00    +0.197 C 
BRANCH  29  30
ATOM     30  O   UNL     1       0.158   9.431 -12.570  0.00  0.00    -0.346 OA
BRANCH  30  33
ATOM     31  O   UNL     1      -2.076   8.641 -12.145  0.00  0.00    -0.341 OA
ATOM     32  C   UNL     1      -0.322   7.520 -10.909  0.00  0.00    +0.201 C 
ATOM     33  C   UNL     1      -0.764   8.836 -11.603  0.00  0.00    +0.282 C 
ATOM     34  C   UNL     1      -0.380   6.294 -11.825  0.00  0.00    +0.179 C 
ATOM     35  C   UNL     1      -1.727   6.206 -12.563  0.00  0.00    +0.177 C 
ATOM     36  C   UNL     1      -2.164   7.580 -13.112  0.00  0.00    +0.178 C 
BRANCH  32  37
ATOM     37  O   UNL     1       0.948   7.646 -10.287  0.00  0.00    -0.384 OA
ATOM     38  H   UNL     1       1.539   8.124 -10.898  0.00  0.00    +0.210 HD
ENDBRANCH  32  37
BRANCH  34  39
ATOM     39  O   UNL     1      -0.176   5.081 -11.068  0.00  0.00    -0.386 OA
ATOM     40  H   UNL     1      -0.576   4.330 -11.541  0.00  0.00    +0.210 HD
ENDBRANCH  34  39
BRANCH  35  41
ATOM     41  O   UNL     1      -1.617   5.223 -13.602  0.00  0.00    -0.386 OA
ATOM     42  H   UNL     1      -2.149   5.470 -14.376  0.00  0.00    +0.210 HD
ENDBRANCH  35  41
BRANCH  36  43
ATOM     43  C   UNL     1      -3.638   7.510 -13.547  0.00  0.00    +0.190 C 
BRANCH  43  44
ATOM     44  O   UNL     1      -4.274   6.394 -12.932  0.00  0.00    -0.392 OA
ATOM     45  H   UNL     1      -4.709   6.745 -12.131  0.00  0.00    +0.210 HD
ENDBRANCH  43  44
ENDBRANCH  36  43
ENDBRANCH  30  33
ENDBRANCH  29  30
ENDBRANCH   2  29
TORSDOF 22
ENDMDL
MODEL 2
REMARK VINA RESULT:    -7.210      2.002      9.519
REMARK INTER + INTRA:         -17.286
REMARK INTER:                 -14.968
REMARK INTRA:                  -2.318
REMARK UNBOUND:                -3.121
REMARK  Name = IG3_ligand.pdb
REMARK  22 active torsions:
REMARK  status: ('A' for Active; 'I' for Inactive)
REMARK    1  A    between atoms: O_2  and  C_23
REMARK    2  A    between atoms: O_2  and  C_26
REMARK    3  A    between atoms: O_4  and  C_21
REMARK    4  A    between atoms: O_4  and  C_29
REMARK    5  A    between atoms: O_5  and  C_18
REMARK    6  A    between atoms: O_6  and  C_19
REMARK    7  A    between atoms: O_7  and  C_20
REMARK    8  A    between atoms: O_8  and  C_22
REMARK    9  A    between atoms: O_9  and  C_24
REMARK   10  A    between atoms: O_10  and  C_25
REMARK   11  A    between atoms: O_11  and  C_28
REMARK   12  A    between atoms: O_12  and  C_30
REMARK   13  A    between atoms: O_13  and  C_31
REMARK   14  A    between atoms: O_14  and  C_32
REMARK   15  A    between atoms: O_15  and  C_33
REMARK   16  A    between atoms: C_17  and  C_26
REMARK   17  A    between atoms: C_27  and  C_28
REMARK   18  A    between atoms: C_29  and  C_30
REMARK   19  A    between atoms: C_30  and  C_31
REMARK   20  A    between atoms: C_31  and  C_32
REMARK   21  A    between atoms: C_32  and  C_33
REMARK   22  A    between atoms: C_33  and  C_34
REMARK                            x       y       z     vdW  Elec       q    Type
REMARK                         _______ _______ _______ _____ _____    ______ ____
ROOT
ATOM      1  O   UNL     1       0.198  10.544 -12.747  0.00  0.00    -0.341 OA
ATOM      2  C   UNL     1      -0.083  10.121 -11.396  0.00  0.00    +0.178 C 
ATOM      3  C   UNL     1       0.233   8.651 -11.087  0.00  0.00    +0.177 C 
ATOM      4  C   UNL     1      -0.090   7.705 -12.245  0.00  0.00    +0.179 C 
ATOM      5  C   UNL     1       0.464   8.257 -13.557  0.00  0.00    +0.201 C 
ATOM      6  C   UNL     1      -0.192   9.633 -13.804  0.00  0.00    +0.282 C 
ENDROOT
BRANCH   3   7
ATOM      7  O   UNL     1      -0.542   8.250  -9.943  0.00  0.00    -0.386 OA
ATOM      8  H   UNL     1      -1.350   7.827 -10.299  0.00  0.00    +0.210 HD
ENDBRANCH   3   7
BRANCH   4   9
ATOM      9  O   UNL     1       0.452   6.414 -11.909  0.00  0.00    -0.386 OA
ATOM     10  H   UNL     1       0.997   6.520 -11.108  0.00  0.00    +0.210 HD
ENDBRANCH   4   9
BRANCH   5  11
ATOM     11  O   UNL     1       0.215   7.338 -14.631  0.00  0.00    -0.384 OA
ATOM     12  H   UNL     1       1.061   6.900 -14.841  0.00  0.00    +0.210 HD
ENDBRANCH   5  11
BRANCH   6  13
ATOM     13  O   UNL     1      -1.628   9.406 -13.998  0.00  0.00    -0.346 OA
BRANCH  13  14
ATOM     14  C   UNL     1      -2.190  10.087 -15.143  0.00  0.00    +0.197 C 
BRANCH  14  15
ATOM     15  C   UNL     1      -3.489   9.475 -15.775  0.00  0.00    +0.171 C 
BRANCH  15  16
ATOM     16  O   UNL     1      -3.936  10.301 -16.843  0.00  0.00    -0.387 OA
ATOM     17  H   UNL     1      -3.441  10.087 -17.644  0.00  0.00    +0.210 HD
ENDBRANCH  15  16
BRANCH  15  18
ATOM     18  C   UNL     1      -3.444   7.989 -16.205  0.00  0.00    +0.176 C 
BRANCH  18  19
ATOM     19  O   UNL     1      -2.047   7.658 -16.308  0.00  0.00    -0.386 OA
ATOM     20  H   UNL     1      -1.549   8.485 -16.190  0.00  0.00    +0.210 HD
ENDBRANCH  18  19
BRANCH  18  21
ATOM     21  C   UNL     1      -4.074   6.947 -15.218  0.00  0.00    +0.181 C 
BRANCH  21  22
ATOM     22  O   UNL     1      -5.385   7.475 -14.843  0.00  0.00    -0.386 OA
ATOM     23  H   UNL     1      -5.219   8.075 -14.090  0.00  0.00    +0.210 HD
ENDBRANCH  21  22
BRANCH  21  24
ATOM     24  C   UNL     1      -3.411   6.624 -13.870  0.00  0.00    +0.208 C 
BRANCH  24  26
ATOM     25  O   UNL     1      -1.644   5.129 -14.537  0.00  0.00    -0.298 OA
ATOM     26  C   UNL     1      -2.589   5.360 -13.786  0.00  0.00    +0.257 C 
ENDBRANCH  24  26
BRANCH  24  27
ATOM     27  O   UNL     1      -4.493   6.406 -12.923  0.00  0.00    -0.382 OA
ATOM     28  H   UNL     1      -5.146   5.833 -13.367  0.00  0.00    +0.210 HD
ENDBRANCH  24  27
ENDBRANCH  21  24
ENDBRANCH  18  21
ENDBRANCH  15  18
ENDBRANCH  14  15
ENDBRANCH  13  14
ENDBRANCH   6  13
BRANCH   2  29
ATOM     29  C   UNL     1       0.516  11.079 -10.278  0.00  0.00    +0.197 C 
BRANCH  29  30
ATOM     30  O   UNL     1       1.588  12.030 -10.590  0.00  0.00    -0.346 OA
BRANCH  30  33
ATOM     31  O   UNL     1      -0.150  13.656 -10.226  0.00  0.00    -0.341 OA
ATOM     32  C   UNL     1       1.933  14.534 -11.092  0.00  0.00    +0.201 C 
ATOM     33  C   UNL     1       0.996  13.300 -11.010  0.00  0.00    +0.282 C 
ATOM     34  C   UNL     1       2.334  15.093  -9.724  0.00  0.00    +0.179 C 
ATOM     35  C   UNL     1       1.110  15.280  -8.813  0.00  0.00    +0.177 C 
ATOM     36  C   UNL     1       0.158  14.068  -8.883  0.00  0.00    +0.178 C 
BRANCH  32  37
ATOM     37  O   UNL     1       3.069  14.287 -11.908  0.00  0.00    -0.384 OA
ATOM     38  H   UNL     1       3.753  14.944 -11.684  0.00  0.00    +0.210 HD
ENDBRANCH  32  37
BRANCH  34  39
ATOM     39  O   UNL     1       3.014  16.360  -9.869  0.00  0.00    -0.386 OA
ATOM     40  H   UNL     1       3.409  16.418 -10.756  0.00  0.00    +0.210 HD
ENDBRANCH  34  39
BRANCH  35  41
ATOM     41  O   UNL     1       1.568  15.526  -7.475  0.00  0.00    -0.386 OA
ATOM     42  H   UNL     1       1.367  16.434  -7.197  0.00  0.00    +0.210 HD
ENDBRANCH  35  41
BRANCH  36  43
ATOM     43  C   UNL     1      -1.182  14.432  -8.223  0.00  0.00    +0.190 C 
BRANCH  43  44
ATOM     44  O   UNL     1      -1.057  14.372  -6.804  0.00  0.00    -0.392 OA
ATOM     45  H   UNL     1      -1.566  13.587  -6.527  0.00  0.00    +0.210 HD
ENDBRANCH  43  44
ENDBRANCH  36  43
ENDBRANCH  30  33
ENDBRANCH  29  30
ENDBRANCH   2  29
TORSDOF 22
ENDMDL
MODEL 3
REMARK VINA RESULT:    -7.198      1.297      1.743
REMARK INTER + INTRA:         -17.261
REMARK INTER:                 -15.177
REMARK INTRA:                  -2.084
REMARK UNBOUND:                -3.121
REMARK  Name = IG3_ligand.pdb
REMARK  22 active torsions:
REMARK  status: ('A' for Active; 'I' for Inactive)
REMARK    1  A    between atoms: O_2  and  C_23
REMARK    2  A    between atoms: O_2  and  C_26
REMARK    3  A    between atoms: O_4  and  C_21
REMARK    4  A    between atoms: O_4  and  C_29
REMARK    5  A    between atoms: O_5  and  C_18
REMARK    6  A    between atoms: O_6  and  C_19
REMARK    7  A    between atoms: O_7  and  C_20
REMARK    8  A    between atoms: O_8  and  C_22
REMARK    9  A    between atoms: O_9  and  C_24
REMARK   10  A    between atoms: O_10  and  C_25
REMARK   11  A    between atoms: O_11  and  C_28
REMARK   12  A    between atoms: O_12  and  C_30
REMARK   13  A    between atoms: O_13  and  C_31
REMARK   14  A    between atoms: O_14  and  C_32
REMARK   15  A    between atoms: O_15  and  C_33
REMARK   16  A    between atoms: C_17  and  C_26
REMARK   17  A    between atoms: C_27  and  C_28
REMARK   18  A    between atoms: C_29  and  C_30
REMARK   19  A    between atoms: C_30  and  C_31
REMARK   20  A    between atoms: C_31  and  C_32
REMARK   21  A    between atoms: C_32  and  C_33
REMARK   22  A    between atoms: C_33  and  C_34
REMARK                            x       y       z     vdW  Elec       q    Type
REMARK                         _______ _______ _______ _____ _____    ______ ____
ROOT
ATOM      1  O   UNL     1       1.879  12.337 -11.055  0.00  0.00    -0.341 OA
ATOM      2  C   UNL     1       1.069  11.503 -11.909  0.00  0.00    +0.178 C 
ATOM      3  C   UNL     1       0.742  12.093 -13.288  0.00  0.00    +0.177 C 
ATOM      4  C   UNL     1       0.480  13.600 -13.255  0.00  0.00    +0.179 C 
ATOM      5  C   UNL     1       1.566  14.314 -12.451  0.00  0.00    +0.201 C 
ATOM      6  C   UNL     1       1.541  13.745 -11.017  0.00  0.00    +0.282 C 
ENDROOT
BRANCH   3   7
ATOM      7  O   UNL     1      -0.435  11.440 -13.795  0.00  0.00    -0.386 OA
ATOM      8  H   UNL     1      -0.229  10.483 -13.810  0.00  0.00    +0.210 HD
ENDBRANCH   3   7
BRANCH   4   9
ATOM      9  O   UNL     1       0.408  14.053 -14.621  0.00  0.00    -0.386 OA
ATOM     10  H   UNL     1       1.276  14.428 -14.856  0.00  0.00    +0.210 HD
ENDBRANCH   4   9
BRANCH   5  11
ATOM     11  O   UNL     1       1.354  15.733 -12.476  0.00  0.00    -0.384 OA
ATOM     12  H   UNL     1       1.851  16.115 -11.729  0.00  0.00    +0.210 HD
ENDBRANCH   5  11
BRANCH   6  13
ATOM     13  O   UNL     1       0.249  14.108 -10.423  0.00  0.00    -0.346 OA
BRANCH  13  14
ATOM     14  C   UNL     1       0.116  13.761  -9.026  0.00  0.00    +0.197 C 
BRANCH  14  15
ATOM     15  C   UNL     1      -0.896  14.603  -8.172  0.00  0.00    +0.171 C 
BRANCH  15  16
ATOM     16  O   UNL     1      -1.189  13.915  -6.962  0.00  0.00    -0.387 OA
ATOM     17  H   UNL     1      -1.550  14.536  -6.317  0.00  0.00    +0.210 HD
ENDBRANCH  15  16
BRANCH  15  18
ATOM     18  C   UNL     1      -0.541  16.083  -7.895  0.00  0.00    +0.176 C 
BRANCH  18  19
ATOM     19  O   UNL     1      -0.937  16.329  -6.533  0.00  0.00    -0.386 OA
ATOM     20  H   UNL     1      -1.706  16.922  -6.563  0.00  0.00    +0.210 HD
ENDBRANCH  18  19
BRANCH  18  21
ATOM     21  C   UNL     1       0.974  16.479  -7.994  0.00  0.00    +0.181 C 
BRANCH  21  22
ATOM     22  O   UNL     1       1.571  16.144  -6.701  0.00  0.00    -0.386 OA
ATOM     23  H   UNL     1       2.502  15.920  -6.895  0.00  0.00    +0.210 HD
ENDBRANCH  21  22
BRANCH  21  24
ATOM     24  C   UNL     1       1.403  17.935  -8.229  0.00  0.00    +0.208 C 
BRANCH  24  26
ATOM     25  O   UNL     1       3.081  18.768  -6.715  0.00  0.00    -0.298 OA
ATOM     26  C   UNL     1       2.807  18.317  -7.825  0.00  0.00    +0.257 C 
ENDBRANCH  24  26
BRANCH  24  27
ATOM     27  O   UNL     1       0.555  18.755  -7.378  0.00  0.00    -0.382 OA
ATOM     28  H   UNL     1      -0.048  19.244  -7.967  0.00  0.00    +0.210 HD
ENDBRANCH  24  27
ENDBRANCH  21  24
ENDBRANCH  18  21
ENDBRANCH  15  18
ENDBRANCH  14  15
ENDBRANCH  13  14
ENDBRANCH   6  13
BRANCH   2  29
ATOM     29  C   UNL     1       1.591  10.007 -12.040  0.00  0.00    +0.197 C 
BRANCH  29  30
ATOM     30  O   UNL     1       0.744   8.956 -12.615  0.00  0.00    -0.346 OA
BRANCH  30  33
ATOM     31  O   UNL     1      -1.656   8.940 -12.427  0.00  0.00    -0.341 OA
ATOM     32  C   UNL     1      -0.487   7.400 -10.971  0.00  0.00    +0.201 C 
ATOM     33  C   UNL     1      -0.412   8.743 -11.744  0.00  0.00    +0.282 C 
ATOM     34  C   UNL     1      -0.844   6.201 -11.855  0.00  0.00    +0.179 C 
ATOM     35  C   UNL     1      -2.067   6.499 -12.739  0.00  0.00    +0.177 C 
ATOM     36  C   UNL     1      -1.983   7.905 -13.370  0.00  0.00    +0.178 C 
BRANCH  32  37
ATOM     37  O   UNL     1       0.688   7.156 -10.211  0.00  0.00    -0.384 OA
ATOM     38  H   UNL     1       0.611   6.271  -9.810  0.00  0.00    +0.210 HD
ENDBRANCH  32  37
BRANCH  34  39
ATOM     39  O   UNL     1      -1.117   5.034 -11.049  0.00  0.00    -0.386 OA
ATOM     40  H   UNL     1      -1.451   5.311 -10.178  0.00  0.00    +0.210 HD
ENDBRANCH  34  39
BRANCH  35  41
ATOM     41  O   UNL     1      -2.175   5.470 -13.734  0.00  0.00    -0.386 OA
ATOM     42  H   UNL     1      -3.098   5.344 -14.008  0.00  0.00    +0.210 HD
ENDBRANCH  35  41
BRANCH  36  43
ATOM     43  C   UNL     1      -3.350   8.278 -13.969  0.00  0.00    +0.190 C 
BRANCH  43  44
ATOM     44  O   UNL     1      -4.363   8.166 -12.973  0.00  0.00    -0.392 OA
ATOM     45  H   UNL     1      -5.211   8.175 -13.457  0.00  0.00    +0.210 HD
ENDBRANCH  43  44
ENDBRANCH  36  43
ENDBRANCH  30  33
ENDBRANCH  29  30
ENDBRANCH   2  29
TORSDOF 22
ENDMDL
MODEL 4
REMARK VINA RESULT:    -7.124      1.646      3.015
REMARK INTER + INTRA:         -17.117
REMARK INTER:                 -14.738
REMARK INTRA:                  -2.379
REMARK UNBOUND:                -3.121
REMARK  Name = IG3_ligand.pdb
REMARK  22 active torsions:
REMARK  status: ('A' for Active; 'I' for Inactive)
REMARK    1  A    between atoms: O_2  and  C_23
REMARK    2  A    between atoms: O_2  and  C_26
REMARK    3  A    between atoms: O_4  and  C_21
REMARK    4  A    between atoms: O_4  and  C_29
REMARK    5  A    between atoms: O_5  and  C_18
REMARK    6  A    between atoms: O_6  and  C_19
REMARK    7  A    between atoms: O_7  and  C_20
REMARK    8  A    between atoms: O_8  and  C_22
REMARK    9  A    between atoms: O_9  and  C_24
REMARK   10  A    between atoms: O_10  and  C_25
REMARK   11  A    between atoms: O_11  and  C_28
REMARK   12  A    between atoms: O_12  and  C_30
REMARK   13  A    between atoms: O_13  and  C_31
REMARK   14  A    between atoms: O_14  and  C_32
REMARK   15  A    between atoms: O_15  and  C_33
REMARK   16  A    between atoms: C_17  and  C_26
REMARK   17  A    between atoms: C_27  and  C_28
REMARK   18  A    between atoms: C_29  and  C_30
REMARK   19  A    between atoms: C_30  and  C_31
REMARK   20  A    between atoms: C_31  and  C_32
REMARK   21  A    between atoms: C_32  and  C_33
REMARK   22  A    between atoms: C_33  and  C_34
REMARK                            x       y       z     vdW  Elec       q    Type
REMARK                         _______ _______ _______ _____ _____    ______ ____
ROOT
ATOM      1  O   UNL     1       1.106  11.698 -13.459  0.00  0.00    -0.341 OA
ATOM      2  C   UNL     1      -0.029  10.839 -13.699  0.00  0.00    +0.178 C 
ATOM      3  C   UNL     1      -1.205  11.494 -14.439  0.00  0.00    +0.177 C 
ATOM      4  C   UNL     1      -1.445  12.947 -14.028  0.00  0.00    +0.179 C 
ATOM      5  C   UNL     1      -0.130  13.726 -14.020  0.00  0.00    +0.201 C 
ATOM      6  C   UNL     1       0.815  13.043 -13.009  0.00  0.00    +0.282 C 
ENDROOT
BRANCH   3   7
ATOM      7  O   UNL     1      -2.396  10.739 -14.155  0.00  0.00    -0.386 OA
ATOM      8  H   UNL     1      -2.593  10.227 -14.965  0.00  0.00    +0.210 HD
ENDBRANCH   3   7
BRANCH   4   9
ATOM      9  O   UNL     1      -2.414  13.497 -14.941  0.00  0.00    -0.386 OA
ATOM     10  H   UNL     1      -2.728  12.773 -15.512  0.00  0.00    +0.210 HD
ENDBRANCH   4   9
BRANCH   5  11
ATOM     11  O   UNL     1      -0.368  15.104 -13.697  0.00  0.00    -0.384 OA
ATOM     12  H   UNL     1      -0.463  15.588 -14.539  0.00  0.00    +0.210 HD
ENDBRANCH   5  11
BRANCH   6  13
ATOM     13  O   UNL     1       0.214  13.190 -11.678  0.00  0.00    -0.346 OA
BRANCH  13  14
ATOM     14  C   UNL     1       1.028  12.681 -10.598  0.00  0.00    +0.197 C 
BRANCH  14  15
ATOM     15  C   UNL     1       0.501  12.906  -9.136  0.00  0.00    +0.171 C 
BRANCH  15  16
ATOM     16  O   UNL     1       1.466  13.636  -8.388  0.00  0.00    -0.387 OA
ATOM     17  H   UNL     1       1.600  13.207  -7.533  0.00  0.00    +0.210 HD
ENDBRANCH  15  16
BRANCH  15  18
ATOM     18  C   UNL     1      -0.909  13.520  -8.971  0.00  0.00    +0.176 C 
BRANCH  18  19
ATOM     19  O   UNL     1      -1.359  13.112  -7.667  0.00  0.00    -0.386 OA
ATOM     20  H   UNL     1      -0.723  12.454  -7.339  0.00  0.00    +0.210 HD
ENDBRANCH  18  19
BRANCH  18  21
ATOM     21  C   UNL     1      -1.009  15.085  -9.004  0.00  0.00    +0.181 C 
BRANCH  21  22
ATOM     22  O   UNL     1       0.208  15.561  -9.660  0.00  0.00    -0.386 OA
ATOM     23  H   UNL     1       0.044  16.502  -9.864  0.00  0.00    +0.210 HD
ENDBRANCH  21  22
BRANCH  21  24
ATOM     24  C   UNL     1      -1.070  15.907  -7.707  0.00  0.00    +0.208 C 
BRANCH  24  26
ATOM     25  O   UNL     1       0.474  17.755  -7.763  0.00  0.00    -0.298 OA
ATOM     26  C   UNL     1      -0.692  17.366  -7.793  0.00  0.00    +0.257 C 
ENDBRANCH  24  26
BRANCH  24  27
ATOM     27  O   UNL     1      -0.074  15.336  -6.813  0.00  0.00    -0.382 OA
ATOM     28  H   UNL     1       0.647  14.995  -7.375  0.00  0.00    +0.210 HD
ENDBRANCH  24  27
ENDBRANCH  21  24
ENDBRANCH  18  21
ENDBRANCH  15  18
ENDBRANCH  14  15
ENDBRANCH  13  14
ENDBRANCH   6  13
BRANCH   2  29
ATOM     29  C   UNL     1       0.343   9.437 -14.350  0.00  0.00    +0.197 C 
BRANCH  29  30
ATOM     30  O   UNL     1       0.596   8.258 -13.515  0.00  0.00    -0.346 OA
BRANCH  30  33
ATOM     31  O   UNL     1      -1.730   8.076 -12.925  0.00  0.00    -0.341 OA
ATOM     32  C   UNL     1      -0.173   7.168 -11.310  0.00  0.00    +0.201 C 
ATOM     33  C   UNL     1      -0.391   8.213 -12.437  0.00  0.00    +0.282 C 
ATOM     34  C   UNL     1      -0.474   5.730 -11.740  0.00  0.00    +0.179 C 
ATOM     35  C   UNL     1      -1.834   5.628 -12.451  0.00  0.00    +0.177 C 
ATOM     36  C   UNL     1      -2.033   6.776 -13.463  0.00  0.00    +0.178 C 
BRANCH  32  37
ATOM     37  O   UNL     1       1.116   7.279 -10.723  0.00  0.00    -0.384 OA
ATOM     38  H   UNL     1       1.681   7.795 -11.327  0.00  0.00    +0.210 HD
ENDBRANCH  32  37
BRANCH  34  39
ATOM     39  O   UNL     1      -0.470   4.844 -10.599  0.00  0.00    -0.386 OA
ATOM     40  H   UNL     1      -0.704   3.944 -10.885  0.00  0.00    +0.210 HD
ENDBRANCH  34  39
BRANCH  35  41
ATOM     41  O   UNL     1      -1.929   4.340 -13.076  0.00  0.00    -0.386 OA
ATOM     42  H   UNL     1      -1.472   4.331 -13.932  0.00  0.00    +0.210 HD
ENDBRANCH  35  41
BRANCH  36  43
ATOM     43  C   UNL     1      -3.506   6.819 -13.902  0.00  0.00    +0.190 C 
BRANCH  43  44
ATOM     44  O   UNL     1      -4.337   6.304 -12.865  0.00  0.00    -0.392 OA
ATOM     45  H   UNL     1      -4.602   5.411 -13.157  0.00  0.00    +0.210 HD
ENDBRANCH  43  44
ENDBRANCH  36  43
ENDBRANCH  30  33
ENDBRANCH  29  30
ENDBRANCH   2  29
TORSDOF 22
ENDMDL
MODEL 5
REMARK VINA RESULT:    -7.033      2.102      9.431
REMARK INTER + INTRA:         -16.938
REMARK INTER:                 -14.506
REMARK INTRA:                  -2.432
REMARK UNBOUND:                -3.121
REMARK  Name = IG3_ligand.pdb
REMARK  22 active torsions:
REMARK  status: ('A' for Active; 'I' for Inactive)
REMARK    1  A    between atoms: O_2  and  C_23
REMARK    2  A    between atoms: O_2  and  C_26
REMARK    3  A    between atoms: O_4  and  C_21
REMARK    4  A    between atoms: O_4  and  C_29
REMARK    5  A    between atoms: O_5  and  C_18
REMARK    6  A    between atoms: O_6  and  C_19
REMARK    7  A    between atoms: O_7  and  C_20
REMARK    8  A    between atoms: O_8  and  C_22
REMARK    9  A    between atoms: O_9  and  C_24
REMARK   10  A    between atoms: O_10  and  C_25
REMARK   11  A    between atoms: O_11  and  C_28
REMARK   12  A    between atoms: O_12  and  C_30
REMARK   13  A    between atoms: O_13  and  C_31
REMARK   14  A    between atoms: O_14  and  C_32
REMARK   15  A    between atoms: O_15  and  C_33
REMARK   16  A    between atoms: C_17  and  C_26
REMARK   17  A    between atoms: C_27  and  C_28
REMARK   18  A    between atoms: C_29  and  C_30
REMARK   19  A    between atoms: C_30  and  C_31
REMARK   20  A    between atoms: C_31  and  C_32
REMARK   21  A    between atoms: C_32  and  C_33
REMARK   22  A    between atoms: C_33  and  C_34
REMARK                            x       y       z     vdW  Elec       q    Type
REMARK                         _______ _______ _______ _____ _____    ______ ____
ROOT
ATOM      1  O   UNL     1       0.090  10.521 -12.429  0.00  0.00    -0.341 OA
ATOM      2  C   UNL     1      -0.185   9.971 -11.123  0.00  0.00    +0.178 C 
ATOM      3  C   UNL     1       0.165   8.486 -10.947  0.00  0.00    +0.177 C 
ATOM      4  C   UNL     1      -0.133   7.643 -12.188  0.00  0.00    +0.179 C 
ATOM      5  C   UNL     1       0.411   8.324 -13.442  0.00  0.00    +0.201 C 
ATOM      6  C   UNL     1      -0.276   9.701 -13.566  0.00  0.00    +0.282 C 
ENDROOT
BRANCH   3   7
ATOM      7  O   UNL     1      -0.604   7.965  -9.849  0.00  0.00    -0.386 OA
ATOM      8  H   UNL     1      -0.556   8.639  -9.141  0.00  0.00    +0.210 HD
ENDBRANCH   3   7
BRANCH   4   9
ATOM      9  O   UNL     1       0.438   6.339 -11.968  0.00  0.00    -0.386 OA
ATOM     10  H   UNL     1      -0.285   5.687 -12.008  0.00  0.00    +0.210 HD
ENDBRANCH   4   9
BRANCH   5  11
ATOM     11  O   UNL     1       0.187   7.500 -14.596  0.00  0.00    -0.384 OA
ATOM     12  H   UNL     1       1.013   7.010 -14.768  0.00  0.00    +0.210 HD
ENDBRANCH   5  11
BRANCH   6  13
ATOM     13  O   UNL     1      -1.706   9.460 -13.787  0.00  0.00    -0.346 OA
BRANCH  13  14
ATOM     14  C   UNL     1      -2.262  10.170 -14.917  0.00  0.00    +0.197 C 
BRANCH  14  15
ATOM     15  C   UNL     1      -3.531   9.547 -15.600  0.00  0.00    +0.171 C 
BRANCH  15  16
ATOM     16  O   UNL     1      -3.999  10.417 -16.623  0.00  0.00    -0.387 OA
ATOM     17  H   UNL     1      -4.755  10.921 -16.296  0.00  0.00    +0.210 HD
ENDBRANCH  15  16
BRANCH  15  18
ATOM     18  C   UNL     1      -3.424   8.092 -16.116  0.00  0.00    +0.176 C 
BRANCH  18  19
ATOM     19  O   UNL     1      -2.015   7.820 -16.221  0.00  0.00    -0.386 OA
ATOM     20  H   UNL     1      -1.858   7.474 -17.115  0.00  0.00    +0.210 HD
ENDBRANCH  18  19
BRANCH  18  21
ATOM     21  C   UNL     1      -4.025   6.970 -15.200  0.00  0.00    +0.181 C 
BRANCH  21  22
ATOM     22  O   UNL     1      -5.326   7.462 -14.747  0.00  0.00    -0.386 OA
ATOM     23  H   UNL     1      -5.969   6.773 -15.005  0.00  0.00    +0.210 HD
ENDBRANCH  21  22
BRANCH  21  24
ATOM     24  C   UNL     1      -3.324   6.542 -13.901  0.00  0.00    +0.208 C 
BRANCH  24  26
ATOM     25  O   UNL     1      -1.406   5.096 -14.073  0.00  0.00    -0.298 OA
ATOM     26  C   UNL     1      -2.618   5.207 -13.902  0.00  0.00    +0.257 C 
ENDBRANCH  24  26
BRANCH  24  27
ATOM     27  O   UNL     1      -4.370   6.388 -12.903  0.00  0.00    -0.382 OA
ATOM     28  H   UNL     1      -4.886   7.216 -12.903  0.00  0.00    +0.210 HD
ENDBRANCH  24  27
ENDBRANCH  21  24
ENDBRANCH  18  21
ENDBRANCH  15  18
ENDBRANCH  14  15
ENDBRANCH  13  14
ENDBRANCH   6  13
BRANCH   2  29
ATOM     29  C   UNL     1       0.388  10.837  -9.920  0.00  0.00    +0.197 C 
BRANCH  29  30
ATOM     30  O   UNL     1      -0.277  12.072  -9.491  0.00  0.00    -0.346 OA
BRANCH  30  33
ATOM     31  O   UNL     1       1.618  13.320 -10.296  0.00  0.00    -0.341 OA
ATOM     32  C   UNL     1       0.244  14.454  -8.656  0.00  0.00    +0.201 C 
ATOM     33  C   UNL     1       0.737  13.083  -9.191  0.00  0.00    +0.282 C 
ATOM     34  C   UNL     1      -0.413  15.330  -9.726  0.00  0.00    +0.179 C 
ATOM     35  C   UNL     1       0.453  15.413 -10.995  0.00  0.00    +0.177 C 
ATOM     36  C   UNL     1       1.014  14.031 -11.390  0.00  0.00    +0.178 C 
BRANCH  32  37
ATOM     37  O   UNL     1      -0.589  14.312  -7.514  0.00  0.00    -0.384 OA
ATOM     38  H   UNL     1      -0.838  13.373  -7.435  0.00  0.00    +0.210 HD
ENDBRANCH  32  37
BRANCH  34  39
ATOM     39  O   UNL     1      -0.643  16.665  -9.223  0.00  0.00    -0.386 OA
ATOM     40  H   UNL     1      -1.572  16.912  -9.370  0.00  0.00    +0.210 HD
ENDBRANCH  34  39
BRANCH  35  41
ATOM     41  O   UNL     1      -0.331  15.996 -12.047  0.00  0.00    -0.386 OA
ATOM     42  H   UNL     1      -0.618  15.322 -12.684  0.00  0.00    +0.210 HD
ENDBRANCH  35  41
BRANCH  36  43
ATOM     43  C   UNL     1       2.114  14.212 -12.451  0.00  0.00    +0.190 C 
BRANCH  43  44
ATOM     44  O   UNL     1       3.332  14.604 -11.825  0.00  0.00    -0.392 OA
ATOM     45  H   UNL     1       4.020  14.530 -12.514  0.00  0.00    +0.210 HD
ENDBRANCH  43  44
ENDBRANCH  36  43
ENDBRANCH  30  33
ENDBRANCH  29  30
ENDBRANCH   2  29
TORSDOF 22
ENDMDL
MODEL 6
REMARK VINA RESULT:    -7.024      2.382      9.118
REMARK INTER + INTRA:         -16.921
REMARK INTER:                 -13.697
REMARK INTRA:                  -3.224
REMARK UNBOUND:                -3.121
REMARK  Name = IG3_ligand.pdb
REMARK  22 active torsions:
REMARK  status: ('A' for Active; 'I' for Inactive)
REMARK    1  A    between atoms: O_2  and  C_23
REMARK    2  A    between atoms: O_2  and  C_26
REMARK    3  A    between atoms: O_4  and  C_21
REMARK    4  A    between atoms: O_4  and  C_29
REMARK    5  A    between atoms: O_5  and  C_18
REMARK    6  A    between atoms: O_6  and  C_19
REMARK    7  A    between atoms: O_7  and  C_20
REMARK    8  A    between atoms: O_8  and  C_22
REMARK    9  A    between atoms: O_9  and  C_24
REMARK   10  A    between atoms: O_10  and  C_25
REMARK   11  A    between atoms: O_11  and  C_28
REMARK   12  A    between atoms: O_12  and  C_30
REMARK   13  A    between atoms: O_13  and  C_31
REMARK   14  A    between atoms: O_14  and  C_32
REMARK   15  A    between atoms: O_15  and  C_33
REMARK   16  A    between atoms: C_17  and  C_26
REMARK   17  A    between atoms: C_27  and  C_28
REMARK   18  A    between atoms: C_29  and  C_30
REMARK   19  A    between atoms: C_30  and  C_31
REMARK   20  A    between atoms: C_31  and  C_32
REMARK   21  A    between atoms: C_32  and  C_33
REMARK   22  A    between atoms: C_33  and  C_34
REMARK                            x       y       z     vdW  Elec       q    Type
REMARK                         _______ _______ _______ _____ _____    ______ ____
ROOT
ATOM      1  O   UNL     1      -0.214   7.973 -13.774  0.00  0.00    -0.341 OA
ATOM      2  C   UNL     1       0.049   9.075 -12.879  0.00  0.00    +0.178 C 
ATOM      3  C   UNL     1       0.658   8.692 -11.523  0.00  0.00    +0.177 C 
ATOM      4  C   UNL     1       0.096   7.389 -10.953  0.00  0.00    +0.179 C 
ATOM      5  C   UNL     1       0.082   6.298 -12.023  0.00  0.00    +0.201 C 
ATOM      6  C   UNL     1      -0.807   6.790 -13.185  0.00  0.00    +0.282 C 
ENDROOT
BRANCH   3   7
ATOM      7  O   UNL     1       0.387   9.751 -10.588  0.00  0.00    -0.386 OA
ATOM      8  H   UNL     1      -0.343  10.275 -10.976  0.00  0.00    +0.210 HD
ENDBRANCH   3   7
BRANCH   4   9
ATOM      9  O   UNL     1       0.900   7.039  -9.809  0.00  0.00    -0.386 OA
ATOM     10  H   UNL     1       1.673   7.631  -9.798  0.00  0.00    +0.210 HD
ENDBRANCH   4   9
BRANCH   5  11
ATOM     11  O   UNL     1      -0.385   5.060 -11.468  0.00  0.00    -0.384 OA
ATOM     12  H   UNL     1      -1.348   5.145 -11.337  0.00  0.00    +0.210 HD
ENDBRANCH   5  11
BRANCH   6  13
ATOM     13  O   UNL     1      -2.175   6.912 -12.669  0.00  0.00    -0.346 OA
BRANCH  13  14
ATOM     14  C   UNL     1      -3.124   6.006 -13.276  0.00  0.00    +0.197 C 
BRANCH  14  15
ATOM     15  C   UNL     1      -3.318   6.107 -14.830  0.00  0.00    +0.171 C 
BRANCH  15  16
ATOM     16  O   UNL     1      -3.703   4.839 -15.347  0.00  0.00    -0.387 OA
ATOM     17  H   UNL     1      -4.517   4.549 -14.916  0.00  0.00    +0.210 HD
ENDBRANCH  15  16
BRANCH  15  18
ATOM     18  C   UNL     1      -4.243   7.227 -15.364  0.00  0.00    +0.176 C 
BRANCH  18  19
ATOM     19  O   UNL     1      -5.018   7.661 -14.233  0.00  0.00    -0.386 OA
ATOM     20  H   UNL     1      -4.849   8.612 -14.120  0.00  0.00    +0.210 HD
ENDBRANCH  18  19
BRANCH  18  21
ATOM     21  C   UNL     1      -3.544   8.507 -15.940  0.00  0.00    +0.181 C 
BRANCH  21  22
ATOM     22  O   UNL     1      -2.121   8.185 -16.049  0.00  0.00    -0.386 OA
ATOM     23  H   UNL     1      -1.937   7.567 -15.316  0.00  0.00    +0.210 HD
ENDBRANCH  21  22
BRANCH  21  24
ATOM     24  C   UNL     1      -3.560   9.837 -15.172  0.00  0.00    +0.208 C 
BRANCH  24  26
ATOM     25  O   UNL     1      -1.911  11.592 -15.165  0.00  0.00    -0.298 OA
ATOM     26  C   UNL     1      -2.796  10.994 -15.772  0.00  0.00    +0.257 C 
ENDBRANCH  24  26
BRANCH  24  27
ATOM     27  O   UNL     1      -2.888   9.588 -13.907  0.00  0.00    -0.382 OA
ATOM     28  H   UNL     1      -1.929   9.637 -14.082  0.00  0.00    +0.210 HD
ENDBRANCH  24  27
ENDBRANCH  21  24
ENDBRANCH  18  21
ENDBRANCH  15  18
ENDBRANCH  14  15
ENDBRANCH  13  14
ENDBRANCH   6  13
BRANCH   2  29
ATOM     29  C   UNL     1       0.851  10.275 -13.545  0.00  0.00    +0.197 C 
BRANCH  29  30
ATOM     30  O   UNL     1       1.492  11.307 -12.723  0.00  0.00    -0.346 OA
BRANCH  30  33
ATOM     31  O   UNL     1       0.476  12.647 -11.000  0.00  0.00    -0.341 OA
ATOM     32  C   UNL     1       0.586  13.675 -13.189  0.00  0.00    +0.201 C 
ATOM     33  C   UNL     1       0.509  12.340 -12.399  0.00  0.00    +0.282 C 
ATOM     34  C   UNL     1       1.761  14.565 -12.777  0.00  0.00    +0.179 C 
ATOM     35  C   UNL     1       1.839  14.722 -11.249  0.00  0.00    +0.177 C 
ATOM     36  C   UNL     1       1.623  13.375 -10.528  0.00  0.00    +0.178 C 
BRANCH  32  37
ATOM     37  O   UNL     1       0.558  13.464 -14.594  0.00  0.00    -0.384 OA
ATOM     38  H   UNL     1       1.185  14.086 -15.006  0.00  0.00    +0.210 HD
ENDBRANCH  32  37
BRANCH  34  39
ATOM     39  O   UNL     1       1.649  15.872 -13.381  0.00  0.00    -0.386 OA
ATOM     40  H   UNL     1       2.416  16.032 -13.958  0.00  0.00    +0.210 HD
ENDBRANCH  34  39
BRANCH  35  41
ATOM     41  O   UNL     1       3.103  15.314 -10.913  0.00  0.00    -0.386 OA
ATOM     42  H   UNL     1       3.473  15.802 -11.667  0.00  0.00    +0.210 HD
ENDBRANCH  35  41
BRANCH  36  43
ATOM     43  C   UNL     1       1.390  13.631  -9.029  0.00  0.00    +0.190 C 
BRANCH  43  44
ATOM     44  O   UNL     1       2.608  14.033  -8.409  0.00  0.00    -0.392 OA
ATOM     45  H   UNL     1       3.146  14.434  -9.119  0.00  0.00    +0.210 HD
ENDBRANCH  43  44
ENDBRANCH  36  43
ENDBRANCH  30  33
ENDBRANCH  29  30
ENDBRANCH   2  29
TORSDOF 22
ENDMDL
MODEL 7
REMARK VINA RESULT:    -6.920      1.485      2.477
REMARK INTER + INTRA:         -16.716
REMARK INTER:                 -13.625
REMARK INTRA:                  -3.091
REMARK UNBOUND:                -3.121
REMARK  Name = IG3_ligand.pdb
REMARK  22 active torsions:
REMARK  status: ('A' for Active; 'I' for Inactive)
REMARK    1  A    between atoms: O_2  and  C_23
REMARK    2  A    between atoms: O_2  and  C_26
REMARK    3  A    between atoms: O_4  and  C_21
REMARK    4  A    between atoms: O_4  and  C_29
REMARK    5  A    between atoms: O_5  and  C_18
REMARK    6  A    between atoms: O_6  and  C_19
REMARK    7  A    between atoms: O_7  and  C_20
REMARK    8  A    between atoms: O_8  and  C_22
REMARK    9  A    between atoms: O_9  and  C_24
REMARK   10  A    between atoms: O_10  and  C_25
REMARK   11  A    between atoms: O_11  and  C_28
REMARK   12  A    between atoms: O_12  and  C_30
REMARK   13  A    between atoms: O_13  and  C_31
REMARK   14  A    between atoms: O_14  and  C_32
REMARK   15  A    between atoms: O_15  and  C_33
REMARK   16  A    between atoms: C_17  and  C_26
REMARK   17  A    between atoms: C_27  and  C_28
REMARK   18  A    between atoms: C_29  and  C_30
REMARK   19  A    between atoms: C_30  and  C_31
REMARK   20  A    between atoms: C_31  and  C_32
REMARK   21  A    between atoms: C_32  and  C_33
REMARK   22  A    between atoms: C_33  and  C_34
REMARK                            x       y       z     vdW  Elec       q    Type
REMARK                         _______ _______ _______ _____ _____    ______ ____
ROOT
ATOM      1  O   UNL     1       0.990  10.906 -10.926  0.00  0.00    -0.341 OA
ATOM      2  C   UNL     1      -0.030  10.106 -11.563  0.00  0.00    +0.178 C 
ATOM      3  C   UNL     1      -0.362  10.494 -13.010  0.00  0.00    +0.177 C 
ATOM      4  C   UNL     1      -0.343  12.005 -13.252  0.00  0.00    +0.179 C 
ATOM      5  C   UNL     1       0.920  12.626 -12.656  0.00  0.00    +0.201 C 
ATOM      6  C   UNL     1       0.916  12.337 -11.140  0.00  0.00    +0.282 C 
ENDROOT
BRANCH   3   7
ATOM      7  O   UNL     1      -1.678  10.002 -13.321  0.00  0.00    -0.386 OA
ATOM      8  H   UNL     1      -1.547   9.234 -13.914  0.00  0.00    +0.210 HD
ENDBRANCH   3   7
BRANCH   4   9
ATOM      9  O   UNL     1      -0.450  12.213 -14.674  0.00  0.00    -0.386 OA
ATOM     10  H   UNL     1      -1.098  11.573 -15.019  0.00  0.00    +0.210 HD
ENDBRANCH   4   9
BRANCH   5  11
ATOM     11  O   UNL     1       0.967  14.031 -12.941  0.00  0.00    -0.384 OA
ATOM     12  H   UNL     1       1.722  14.182 -13.541  0.00  0.00    +0.210 HD
ENDBRANCH   5  11
BRANCH   6  13
ATOM     13  O   UNL     1      -0.232  13.043 -10.561  0.00  0.00    -0.346 OA
BRANCH  13  14
ATOM     14  C   UNL     1      -0.263  13.047  -9.116  0.00  0.00    +0.197 C 
BRANCH  14  15
ATOM     15  C   UNL     1      -0.296  14.445  -8.403  0.00  0.00    +0.171 C 
BRANCH  15  16
ATOM     16  O   UNL     1      -0.840  14.303  -7.097  0.00  0.00    -0.387 OA
ATOM     17  H   UNL     1      -0.765  15.141  -6.624  0.00  0.00    +0.210 HD
ENDBRANCH  15  16
BRANCH  15  18
ATOM     18  C   UNL     1       1.017  15.263  -8.371  0.00  0.00    +0.176 C 
BRANCH  18  19
ATOM     19  O   UNL     1       2.072  14.312  -8.602  0.00  0.00    -0.386 OA
ATOM     20  H   UNL     1       2.398  14.031  -7.730  0.00  0.00    +0.210 HD
ENDBRANCH  18  19
BRANCH  18  21
ATOM     21  C   UNL     1       1.182  16.380  -9.459  0.00  0.00    +0.181 C 
BRANCH  21  22
ATOM     22  O   UNL     1       0.620  15.836 -10.695  0.00  0.00    -0.386 OA
ATOM     23  H   UNL     1       0.282  14.951 -10.460  0.00  0.00    +0.210 HD
ENDBRANCH  21  22
BRANCH  21  24
ATOM     24  C   UNL     1       2.572  16.883  -9.880  0.00  0.00    +0.208 C 
BRANCH  24  26
ATOM     25  O   UNL     1       3.200  14.970 -11.202  0.00  0.00    -0.298 OA
ATOM     26  C   UNL     1       3.237  16.188 -11.045  0.00  0.00    +0.257 C 
ENDBRANCH  24  26
BRANCH  24  27
ATOM     27  O   UNL     1       3.459  16.620  -8.758  0.00  0.00    -0.382 OA
ATOM     28  H   UNL     1       3.706  15.678  -8.808  0.00  0.00    +0.210 HD
ENDBRANCH  24  27
ENDBRANCH  21  24
ENDBRANCH  18  21
ENDBRANCH  15  18
ENDBRANCH  14  15
ENDBRANCH  13  14
ENDBRANCH   6  13
BRANCH   2  29
ATOM     29  C   UNL     1       0.199   8.539 -11.432  0.00  0.00    +0.197 C 
BRANCH  29  30
ATOM     30  O   UNL     1      -0.150   7.628 -12.528  0.00  0.00    -0.346 OA
BRANCH  30  33
ATOM     31  O   UNL     1      -2.478   7.103 -12.842  0.00  0.00    -0.341 OA
ATOM     32  C   UNL     1      -1.082   5.257 -12.134  0.00  0.00    +0.201 C 
ATOM     33  C   UNL     1      -1.281   6.797 -12.117  0.00  0.00    +0.282 C 
ATOM     34  C   UNL     1      -1.060   4.656 -13.542  0.00  0.00    +0.179 C 
ATOM     35  C   UNL     1      -2.246   5.156 -14.384  0.00  0.00    +0.177 C 
ATOM     36  C   UNL     1      -2.464   6.674 -14.215  0.00  0.00    +0.178 C 
BRANCH  32  37
ATOM     37  O   UNL     1       0.055   4.860 -11.379  0.00  0.00    -0.384 OA
ATOM     38  H   UNL     1       0.533   4.180 -11.888  0.00  0.00    +0.210 HD
ENDBRANCH  32  37
BRANCH  34  39
ATOM     39  O   UNL     1      -1.098   3.213 -13.482  0.00  0.00    -0.386 OA
ATOM     40  H   UNL     1      -1.661   2.933 -12.741  0.00  0.00    +0.210 HD
ENDBRANCH  34  39
BRANCH  35  41
ATOM     41  O   UNL     1      -2.018   4.796 -15.755  0.00  0.00    -0.386 OA
ATOM     42  H   UNL     1      -1.150   5.106 -16.059  0.00  0.00    +0.210 HD
ENDBRANCH  35  41
BRANCH  36  43
ATOM     43  C   UNL     1      -3.830   7.063 -14.806  0.00  0.00    +0.190 C 
BRANCH  43  44
ATOM     44  O   UNL     1      -4.799   7.160 -13.767  0.00  0.00    -0.392 OA
ATOM     45  H   UNL     1      -4.295   7.344 -12.951  0.00  0.00    +0.210 HD
ENDBRANCH  43  44
ENDBRANCH  36  43
ENDBRANCH  30  33
ENDBRANCH  29  30
ENDBRANCH   2  29
TORSDOF 22
ENDMDL
MODEL 8
REMARK VINA RESULT:    -6.885      3.147      6.584
REMARK INTER + INTRA:         -16.647
REMARK INTER:                 -14.561
REMARK INTRA:                  -2.086
REMARK UNBOUND:                -3.121
REMARK  Name = IG3_ligand.pdb
REMARK  22 active torsions:
REMARK  status: ('A' for Active; 'I' for Inactive)
REMARK    1  A    between atoms: O_2  and  C_23
REMARK    2  A    between atoms: O_2  and  C_26
REMARK    3  A    between atoms: O_4  and  C_21
REMARK    4  A    between atoms: O_4  and  C_29
REMARK    5  A    between atoms: O_5  and  C_18
REMARK    6  A    between atoms: O_6  and  C_19
REMARK    7  A    between atoms: O_7  and  C_20
REMARK    8  A    between atoms: O_8  and  C_22
REMARK    9  A    between atoms: O_9  and  C_24
REMARK   10  A    between atoms: O_10  and  C_25
REMARK   11  A    between atoms: O_11  and  C_28
REMARK   12  A    between atoms: O_12  and  C_30
REMARK   13  A    between atoms: O_13  and  C_31
REMARK   14  A    between atoms: O_14  and  C_32
REMARK   15  A    between atoms: O_15  and  C_33
REMARK   16  A    between atoms: C_17  and  C_26
REMARK   17  A    between atoms: C_27  and  C_28
REMARK   18  A    between atoms: C_29  and  C_30
REMARK   19  A    between atoms: C_30  and  C_31
REMARK   20  A    between atoms: C_31  and  C_32
REMARK   21  A    between atoms: C_32  and  C_33
REMARK   22  A    between atoms: C_33  and  C_34
REMARK                            x       y       z     vdW  Elec       q    Type
REMARK                         _______ _______ _______ _____ _____    ______ ____
ROOT
ATOM      1  O   UNL     1      -2.356   8.004 -13.203  0.00  0.00    -0.341 OA
ATOM      2  C   UNL     1      -2.050   6.740 -13.831  0.00  0.00    +0.178 C 
ATOM      3  C   UNL     1      -1.483   5.661 -12.898  0.00  0.00    +0.177 C 
ATOM      4  C   UNL     1      -0.528   6.217 -11.840  0.00  0.00    +0.179 C 
ATOM      5  C   UNL     1      -1.133   7.447 -11.166  0.00  0.00    +0.201 C 
ATOM      6  C   UNL     1      -1.381   8.509 -12.259  0.00  0.00    +0.282 C 
ENDROOT
BRANCH   3   7
ATOM      7  O   UNL     1      -0.768   4.701 -13.695  0.00  0.00    -0.386 OA
ATOM      8  H   UNL     1      -1.424   4.322 -14.316  0.00  0.00    +0.210 HD
ENDBRANCH   3   7
BRANCH   4   9
ATOM      9  O   UNL     1      -0.250   5.151 -10.911  0.00  0.00    -0.386 OA
ATOM     10  H   UNL     1      -0.569   5.432 -10.033  0.00  0.00    +0.210 HD
ENDBRANCH   4   9
BRANCH   5  11
ATOM     11  O   UNL     1      -0.264   7.927 -10.130  0.00  0.00    -0.384 OA
ATOM     12  H   UNL     1      -0.817   8.407  -9.485  0.00  0.00    +0.210 HD
ENDBRANCH   5  11
BRANCH   6  13
ATOM     13  O   UNL     1      -0.072   8.903 -12.792  0.00  0.00    -0.346 OA
BRANCH  13  14
ATOM     14  C   UNL     1       0.195  10.322 -12.725  0.00  0.00    +0.197 C 
BRANCH  14  15
ATOM     15  C   UNL     1       1.061  10.831 -11.519  0.00  0.00    +0.171 C 
BRANCH  15  16
ATOM     16  O   UNL     1       2.271  11.399 -12.004  0.00  0.00    -0.387 OA
ATOM     17  H   UNL     1       3.020  11.012 -11.532  0.00  0.00    +0.210 HD
ENDBRANCH  15  16
BRANCH  15  18
ATOM     18  C   UNL     1       0.379  11.772 -10.496  0.00  0.00    +0.176 C 
BRANCH  18  19
ATOM     19  O   UNL     1       0.035  10.939  -9.374  0.00  0.00    -0.386 OA
ATOM     20  H   UNL     1       0.753  11.025  -8.724  0.00  0.00    +0.210 HD
ENDBRANCH  18  19
BRANCH  18  21
ATOM     21  C   UNL     1       1.248  12.946  -9.926  0.00  0.00    +0.181 C 
BRANCH  21  22
ATOM     22  O   UNL     1       0.867  13.096  -8.521  0.00  0.00    -0.386 OA
ATOM     23  H   UNL     1      -0.041  12.740  -8.458  0.00  0.00    +0.210 HD
ENDBRANCH  21  22
BRANCH  21  24
ATOM     24  C   UNL     1       1.130  14.370 -10.490  0.00  0.00    +0.208 C 
BRANCH  24  26
ATOM     25  O   UNL     1       3.120  14.249 -11.842  0.00  0.00    -0.298 OA
ATOM     26  C   UNL     1       2.341  14.941 -11.190  0.00  0.00    +0.257 C 
ENDBRANCH  24  26
BRANCH  24  27
ATOM     27  O   UNL     1       0.936  15.249  -9.347  0.00  0.00    -0.382 OA
ATOM     28  H   UNL     1       1.230  16.138  -9.621  0.00  0.00    +0.210 HD
ENDBRANCH  24  27
ENDBRANCH  21  24
ENDBRANCH  18  21
ENDBRANCH  15  18
ENDBRANCH  14  15
ENDBRANCH  13  14
ENDBRANCH   6  13
BRANCH   2  29
ATOM     29  C   UNL     1      -3.229   6.158 -14.725  0.00  0.00    +0.197 C 
BRANCH  29  30
ATOM     30  O   UNL     1      -3.604   4.742 -14.654  0.00  0.00    -0.346 OA
BRANCH  30  33
ATOM     31  O   UNL     1      -2.079   3.377 -15.921  0.00  0.00    -0.341 OA
ATOM     32  C   UNL     1      -4.409   3.191 -16.549  0.00  0.00    +0.201 C 
ATOM     33  C   UNL     1      -3.312   4.104 -15.938  0.00  0.00    +0.282 C 
ATOM     34  C   UNL     1      -4.555   1.845 -15.835  0.00  0.00    +0.179 C 
ATOM     35  C   UNL     1      -3.192   1.162 -15.637  0.00  0.00    +0.177 C 
ATOM     36  C   UNL     1      -2.120   2.161 -15.153  0.00  0.00    +0.178 C 
BRANCH  32  37
ATOM     37  O   UNL     1      -5.657   3.860 -16.663  0.00  0.00    -0.384 OA
ATOM     38  H   UNL     1      -5.833   4.319 -15.821  0.00  0.00    +0.210 HD
ENDBRANCH  32  37
BRANCH  34  39
ATOM     39  O   UNL     1      -5.423   0.962 -16.580  0.00  0.00    -0.386 OA
ATOM     40  H   UNL     1      -6.262   0.850 -16.101  0.00  0.00    +0.210 HD
ENDBRANCH  34  39
BRANCH  35  41
ATOM     41  O   UNL     1      -3.355   0.066 -14.725  0.00  0.00    -0.386 OA
ATOM     42  H   UNL     1      -3.122   0.327 -13.819  0.00  0.00    +0.210 HD
ENDBRANCH  35  41
BRANCH  36  43
ATOM     43  C   UNL     1      -0.729   1.518 -15.281  0.00  0.00    +0.190 C 
BRANCH  43  44
ATOM     44  O   UNL     1      -0.254   1.129 -13.995  0.00  0.00    -0.392 OA
ATOM     45  H   UNL     1      -1.040   0.822 -13.504  0.00  0.00    +0.210 HD
ENDBRANCH  43  44
ENDBRANCH  36  43
ENDBRANCH  30  33
ENDBRANCH  29  30
ENDBRANCH   2  29
TORSDOF 22
ENDMDL
MODEL 9
REMARK VINA RESULT:    -6.848      1.379      2.457
REMARK INTER + INTRA:         -16.574
REMARK INTER:                 -13.891
REMARK INTRA:                  -2.683
REMARK UNBOUND:                -3.121
REMARK  Name = IG3_ligand.pdb
REMARK  22 active torsions:
REMARK  status: ('A' for Active; 'I' for Inactive)
REMARK    1  A    between atoms: O_2  and  C_23
REMARK    2  A    between atoms: O_2  and  C_26
REMARK    3  A    between atoms: O_4  and  C_21
REMARK    4  A    between atoms: O_4  and  C_29
REMARK    5  A    between atoms: O_5  and  C_18
REMARK    6  A    between atoms: O_6  and  C_19
REMARK    7  A    between atoms: O_7  and  C_20
REMARK    8  A    between atoms: O_8  and  C_22
REMARK    9  A    between atoms: O_9  and  C_24
REMARK   10  A    between atoms: O_10  and  C_25
REMARK   11  A    between atoms: O_11  and  C_28
REMARK   12  A    between atoms: O_12  and  C_30
REMARK   13  A    between atoms: O_13  and  C_31
REMARK   14  A    between atoms: O_14  and  C_32
REMARK   15  A    between atoms: O_15  and  C_33
REMARK   16  A    between atoms: C_17  and  C_26
REMARK   17  A    between atoms: C_27  and  C_28
REMARK   18  A    between atoms: C_29  and  C_30
REMARK   19  A    between atoms: C_30  and  C_31
REMARK   20  A    between atoms: C_31  and  C_32
REMARK   21  A    between atoms: C_32  and  C_33
REMARK   22  A    between atoms: C_33  and  C_34
REMARK                            x       y       z     vdW  Elec       q    Type
REMARK                         _______ _______ _______ _____ _____    ______ ____
ROOT
ATOM      1  O   UNL     1       1.634  12.194 -10.737  0.00  0.00    -0.341 OA
ATOM      2  C   UNL     1       0.616  11.699 -11.633  0.00  0.00    +0.178 C 
ATOM      3  C   UNL     1       0.543  12.399 -12.997  0.00  0.00    +0.177 C 
ATOM      4  C   UNL     1       0.796  13.906 -12.919  0.00  0.00    +0.179 C 
ATOM      5  C   UNL     1       2.035  14.197 -12.073  0.00  0.00    +0.201 C 
ATOM      6  C   UNL     1       1.782  13.633 -10.658  0.00  0.00    +0.282 C 
ENDROOT
BRANCH   3   7
ATOM      7  O   UNL     1      -0.770  12.188 -13.546  0.00  0.00    -0.386 OA
ATOM      8  H   UNL     1      -1.400  12.554 -12.892  0.00  0.00    +0.210 HD
ENDBRANCH   3   7
BRANCH   4   9
ATOM      9  O   UNL     1       0.916  14.392 -14.270  0.00  0.00    -0.386 OA
ATOM     10  H   UNL     1       0.292  13.888 -14.823  0.00  0.00    +0.210 HD
ENDBRANCH   4   9
BRANCH   5  11
ATOM     11  O   UNL     1       2.307  15.606 -12.054  0.00  0.00    -0.384 OA
ATOM     12  H   UNL     1       1.842  15.982 -11.283  0.00  0.00    +0.210 HD
ENDBRANCH   5  11
BRANCH   6  13
ATOM     13  O   UNL     1       0.668  14.390 -10.076  0.00  0.00    -0.346 OA
BRANCH  13  14
ATOM     14  C   UNL     1       0.180  13.863  -8.822  0.00  0.00    +0.197 C 
BRANCH  14  15
ATOM     15  C   UNL     1      -0.632  14.841  -7.901  0.00  0.00    +0.171 C 
BRANCH  15  16
ATOM     16  O   UNL     1      -1.241  14.108  -6.845  0.00  0.00    -0.387 OA
ATOM     17  H   UNL     1      -1.909  14.658  -6.416  0.00  0.00    +0.210 HD
ENDBRANCH  15  16
BRANCH  15  18
ATOM     18  C   UNL     1       0.104  16.089  -7.358  0.00  0.00    +0.176 C 
BRANCH  18  19
ATOM     19  O   UNL     1       1.506  15.817  -7.530  0.00  0.00    -0.386 OA
ATOM     20  H   UNL     1       1.698  15.900  -8.480  0.00  0.00    +0.210 HD
ENDBRANCH  18  19
BRANCH  18  21
ATOM     21  C   UNL     1      -0.176  17.449  -8.086  0.00  0.00    +0.181 C 
BRANCH  21  22
ATOM     22  O   UNL     1      -0.462  17.117  -9.481  0.00  0.00    -0.386 OA
ATOM     23  H   UNL     1      -0.408  16.144  -9.535  0.00  0.00    +0.210 HD
ENDBRANCH  21  22
BRANCH  21  24
ATOM     24  C   UNL     1       0.903  18.538  -8.183  0.00  0.00    +0.208 C 
BRANCH  24  26
ATOM     25  O   UNL     1       2.379  17.328  -9.652  0.00  0.00    -0.298 OA
ATOM     26  C   UNL     1       1.920  18.410  -9.293  0.00  0.00    +0.257 C 
ENDBRANCH  24  26
BRANCH  24  27
ATOM     27  O   UNL     1       1.694  18.440  -6.966  0.00  0.00    -0.382 OA
ATOM     28  H   UNL     1       1.310  19.070  -6.328  0.00  0.00    +0.210 HD
ENDBRANCH  24  27
ENDBRANCH  21  24
ENDBRANCH  18  21
ENDBRANCH  15  18
ENDBRANCH  14  15
ENDBRANCH  13  14
ENDBRANCH   6  13
BRANCH   2  29
ATOM     29  C   UNL     1       0.615  10.118 -11.804  0.00  0.00    +0.197 C 
BRANCH  29  30
ATOM     30  O   UNL     1      -0.631   9.383 -12.045  0.00  0.00    -0.346 OA
BRANCH  30  33
ATOM     31  O   UNL     1      -0.475   7.048 -12.607  0.00  0.00    -0.341 OA
ATOM     32  C   UNL     1      -1.285   8.492 -14.373  0.00  0.00    +0.201 C 
ATOM     33  C   UNL     1      -0.407   8.392 -13.097  0.00  0.00    +0.282 C 
ATOM     34  C   UNL     1      -2.732   8.040 -14.160  0.00  0.00    +0.179 C 
ATOM     35  C   UNL     1      -2.797   6.680 -13.444  0.00  0.00    +0.177 C 
ATOM     36  C   UNL     1      -1.802   6.610 -12.267  0.00  0.00    +0.178 C 
BRANCH  32  37
ATOM     37  O   UNL     1      -1.223   9.783 -14.963  0.00  0.00    -0.384 OA
ATOM     38  H   UNL     1      -1.557   9.716 -15.876  0.00  0.00    +0.210 HD
ENDBRANCH  32  37
BRANCH  34  39
ATOM     39  O   UNL     1      -3.429   7.944 -15.421  0.00  0.00    -0.386 OA
ATOM     40  H   UNL     1      -2.784   7.856 -16.144  0.00  0.00    +0.210 HD
ENDBRANCH  34  39
BRANCH  35  41
ATOM     41  O   UNL     1      -4.148   6.450 -13.020  0.00  0.00    -0.386 OA
ATOM     42  H   UNL     1      -4.177   6.119 -12.107  0.00  0.00    +0.210 HD
ENDBRANCH  35  41
BRANCH  36  43
ATOM     43  C   UNL     1      -1.671   5.152 -11.796  0.00  0.00    +0.190 C 
BRANCH  43  44
ATOM     44  O   UNL     1      -0.492   4.999 -11.011  0.00  0.00    -0.392 OA
ATOM     45  H   UNL     1       0.246   4.948 -11.649  0.00  0.00    +0.210 HD
ENDBRANCH  43  44
ENDBRANCH  36  43
ENDBRANCH  30  33
ENDBRANCH  29  30
ENDBRANCH   2  29
TORSDOF 22
ENDMDL
