REMARK  Name = IG3_ligand.pdb
REMARK  22 active torsions:
REMARK  status: ('A' for Active; 'I' for Inactive)
REMARK    1  A    between atoms: O_2  and  C_23
REMARK    2  A    between atoms: O_2  and  C_26
REMARK    3  A    between atoms: O_4  and  C_21
REMARK    4  A    between atoms: O_4  and  C_29
REMARK    5  A    between atoms: O_5  and  C_18
REMARK    6  A    between atoms: O_6  and  C_19
REMARK    7  A    between atoms: O_7  and  C_20
REMARK    8  A    between atoms: O_8  and  C_22
REMARK    9  A    between atoms: O_9  and  C_24
REMARK   10  A    between atoms: O_10  and  C_25
REMARK   11  A    between atoms: O_11  and  C_28
REMARK   12  A    between atoms: O_12  and  C_30
REMARK   13  A    between atoms: O_13  and  C_31
REMARK   14  A    between atoms: O_14  and  C_32
REMARK   15  A    between atoms: O_15  and  C_33
REMARK   16  A    between atoms: C_17  and  C_26
REMARK   17  A    between atoms: C_27  and  C_28
REMARK   18  A    between atoms: C_29  and  C_30
REMARK   19  A    between atoms: C_30  and  C_31
REMARK   20  A    between atoms: C_31  and  C_32
REMARK   21  A    between atoms: C_32  and  C_33
REMARK   22  A    between atoms: C_33  and  C_34
REMARK                            x       y       z     vdW  Elec       q    Type
REMARK                         _______ _______ _______ _____ _____    ______ ____
ROOT
ATOM      1  O   UNL     1       1.834  -7.267   3.021  0.00  0.00    -0.341 OA
ATOM      2  C   UNL     1       0.521  -6.686   3.169  0.00  0.00    +0.178 C 
ATOM      3  C   UNL     1      -0.228  -6.408   1.858  0.00  0.00    +0.177 C 
ATOM      4  C   UNL     1       0.683  -5.911   0.734  0.00  0.00    +0.179 C 
ATOM      5  C   UNL     1       1.931  -6.786   0.630  0.00  0.00    +0.201 C 
ATOM      6  C   UNL     1       2.674  -6.709   1.981  0.00  0.00    +0.282 C 
ENDROOT
BRANCH   3   7
ATOM      7  O   UNL     1      -1.227  -5.404   2.110  0.00  0.00    -0.386 OA
ATOM      8  H   UNL     1      -1.425  -4.995   1.243  0.00  0.00    +0.210 HD
ENDBRANCH   3   7
BRANCH   4   9
ATOM      9  O   UNL     1      -0.096  -5.903  -0.478  0.00  0.00    -0.386 OA
ATOM     10  H   UNL     1       0.326  -6.517  -1.106  0.00  0.00    +0.210 HD
ENDBRANCH   4   9
BRANCH   5  11
ATOM     11  O   UNL     1       2.752  -6.357  -0.466  0.00  0.00    -0.384 OA
ATOM     12  H   UNL     1       3.393  -5.711  -0.114  0.00  0.00    +0.210 HD
ENDBRANCH   5  11
BRANCH   6  13
ATOM     13  O   UNL     1       3.126  -5.324   2.155  0.00  0.00    -0.346 OA
BRANCH  13  14
ATOM     14  C   UNL     1       4.485  -5.196   2.630  0.00  0.00    +0.197 C 
BRANCH  14  15
ATOM     15  C   UNL     1       5.215  -3.834   2.355  0.00  0.00    +0.171 C 
BRANCH  15  16
ATOM     16  O   UNL     1       5.673  -3.800   1.009  0.00  0.00    -0.387 OA
ATOM     17  H   UNL     1       4.930  -3.613   0.421  0.00  0.00    +0.210 HD
ENDBRANCH  15  16
BRANCH  15  18
ATOM     18  C   UNL     1       4.461  -2.532   2.717  0.00  0.00    +0.176 C 
BRANCH  18  19
ATOM     19  O   UNL     1       3.869  -2.773   4.006  0.00  0.00    -0.386 OA
ATOM     20  H   UNL     1       2.963  -3.089   3.849  0.00  0.00    +0.210 HD
ENDBRANCH  18  19
BRANCH  18  21
ATOM     21  C   UNL     1       5.324  -1.231   2.862  0.00  0.00    +0.181 C 
BRANCH  21  22
ATOM     22  O   UNL     1       4.443  -0.215   3.437  0.00  0.00    -0.386 OA
ATOM     23  H   UNL     1       5.037   0.469   3.802  0.00  0.00    +0.210 HD
ENDBRANCH  21  22
BRANCH  21  24
ATOM     24  C   UNL     1       5.930  -0.536   1.633  0.00  0.00    +0.208 C 
BRANCH  24  26
ATOM     25  O   UNL     1       7.066  -1.421  -0.298  0.00  0.00    -0.298 OA
ATOM     26  C   UNL     1       7.055  -1.247   0.919  0.00  0.00    +0.257 C 
ENDBRANCH  24  26
BRANCH  24  27
ATOM     27  O   UNL     1       6.539   0.693   2.116  0.00  0.00    -0.382 OA
ATOM     28  H   UNL     1       6.004   1.430   1.766  0.00  0.00    +0.210 HD
ENDBRANCH  24  27
ENDBRANCH  21  24
ENDBRANCH  18  21
ENDBRANCH  15  18
ENDBRANCH  14  15
ENDBRANCH  13  14
ENDBRANCH   6  13
BRANCH   2  29
ATOM     29  C   UNL     1      -0.412  -7.447   4.207  0.00  0.00    +0.197 C 
BRANCH  29  30
ATOM     30  O   UNL     1      -1.002  -8.750   3.882  0.00  0.00    -0.346 OA
BRANCH  30  33
ATOM     31  O   UNL     1      -3.159  -8.426   4.900  0.00  0.00    -0.341 OA
ATOM     32  C   UNL     1      -2.234 -10.653   5.108  0.00  0.00    +0.201 C 
ATOM     33  C   UNL     1      -1.919  -9.141   4.952  0.00  0.00    +0.282 C 
ATOM     34  C   UNL     1      -3.159 -11.203   4.019  0.00  0.00    +0.179 C 
ATOM     35  C   UNL     1      -4.396 -10.309   3.828  0.00  0.00    +0.177 C 
ATOM     36  C   UNL     1      -4.019  -8.813   3.814  0.00  0.00    +0.178 C 
BRANCH  32  37
ATOM     37  O   UNL     1      -1.053 -11.433   5.232  0.00  0.00    -0.384 OA
ATOM     38  H   UNL     1      -0.580 -11.405   4.380  0.00  0.00    +0.210 HD
ENDBRANCH  32  37
BRANCH  34  39
ATOM     39  O   UNL     1      -3.590 -12.543   4.343  0.00  0.00    -0.386 OA
ATOM     40  H   UNL     1      -3.513 -12.687   5.302  0.00  0.00    +0.210 HD
ENDBRANCH  34  39
BRANCH  35  41
ATOM     41  O   UNL     1      -5.066 -10.705   2.622  0.00  0.00    -0.386 OA
ATOM     42  H   UNL     1      -5.319  -9.932   2.092  0.00  0.00    +0.210 HD
ENDBRANCH  35  41
BRANCH  36  43
ATOM     43  C   UNL     1      -5.295  -7.964   3.946  0.00  0.00    +0.190 C 
BRANCH  43  44
ATOM     44  O   UNL     1      -4.965  -6.579   3.889  0.00  0.00    -0.392 OA
ATOM     45  H   UNL     1      -4.229  -6.456   4.519  0.00  0.00    +0.210 HD
ENDBRANCH  43  44
ENDBRANCH  36  43
ENDBRANCH  30  33
ENDBRANCH  29  30
ENDBRANCH   2  29
TORSDOF 22
